Version 4
SHEET 1 880 680
TEXT 256 56 Left 2 !.inc CheDoA.cir
TEXT 160 112 Left 2 !.ac dec 101 10 1G
